Circuit: * D:\Documents\GITHUB_CODES\NE555_PWM_Driver\SPICE\pwm.asc

Direct Newton iteration for .op point succeeded.

Date: Sun Aug 07 02:46:51 2022
Total elapsed time: 0.052 seconds.

tnom = 27
temp = 27
method = modified trap
totiter = 6437
traniter = 6408
tranpoints = 2060
accept = 1807
rejected = 253
matrix size = 18
fillins = 6
solver = Normal
Matrix Compiler1: 904 bytes object code size  0.1/0.1/[0.1]
Matrix Compiler2: 1.18 KB object code size  0.1/0.1/[0.1]

