Circuit: * D:\Documents\GITHUB_CODES\NE555_PWM_Driver\NE555_PWM_Driver_smd\SPICE\pwm.asc

Direct Newton iteration for .op point succeeded.

Date: Sun Jul 31 13:10:55 2022
Total elapsed time: 0.102 seconds.

tnom = 27
temp = 27
method = modified trap
totiter = 18786
traniter = 18762
tranpoints = 4515
accept = 3711
rejected = 804
matrix size = 16
fillins = 2
solver = Normal
Matrix Compiler1: 644 bytes object code size  0.1/0.1/[0.1]
Matrix Compiler2: 990 bytes object code size  0.1/0.1/[0.1]

